OPT_V9/My_campus_w_initial_sub_3_active_25_03_11_44/powerflow_results_t15.txt
Pandapower Network Debug Info
==================================================

BUS:
       vm_pu  va_degree      p_mw    q_mvar
0   1.007369   0.309043 -0.003921 -0.000551
1   1.011757   0.527241 -0.005016 -0.000005
2   1.013992   0.661370 -0.002848  0.000435
3   1.010101   0.404029 -0.003797 -0.000434
4   1.003937   0.119847 -0.001979 -0.000350
5   1.005149   0.200285 -0.002424 -0.000276
6   1.008668   0.341808 -0.003933 -0.000190
7   1.001984   0.063888 -0.002625 -0.000438
8   1.001208   0.037098 -0.004203 -0.000873
9   0.999965   0.000536  0.004640  0.005522
10  0.999958   0.000464  0.006903  0.001407
11  0.999953   0.000474  0.006940  0.005770
12  0.999983   0.001643  0.004235  0.000109
13  0.999975   0.001818  0.004888  0.004331
14  0.999970   0.001904  0.004260  0.006369
15  0.999987   0.000612  0.000000  0.000000
16  0.999987   0.000612  0.000000  0.000000
17  0.999984   0.001707  0.000000  0.000000
18  0.999984   0.001706  0.000000  0.000000
19  1.000000   0.000000 -0.003087 -0.017273
20  1.000000   0.000002  0.000000  0.000000
21  1.000000   0.000000  0.001701 -0.013729
22  1.000000   0.000002  0.000000  0.000000
--------------------------------------------------

LINE:
    p_from_mw  q_from_mvar   p_to_mw  q_to_mvar         pl_mw       ql_mvar  i_from_ka   i_to_ka      i_ka  vm_from_pu  va_from_degree  vm_to_pu  va_to_degree  loading_percent
0    0.003077     0.013273 -0.003076  -0.013273  1.815769e-07  1.415785e-07   0.000524  0.000524  0.000524    1.000000        0.000002  0.999987      0.000612         0.228009
1   -0.001711     0.009729  0.001711  -0.009729  2.624635e-07  2.046471e-07   0.000380  0.000380  0.000380    1.000000        0.000002  0.999984      0.001707         0.165306
2    0.018484     0.012701 -0.018484  -0.012700  3.889490e-07  3.032699e-07   0.000863  0.000863  0.000863    0.999987        0.000612  0.999965      0.000536         0.375316
3    0.004235     0.000109 -0.004235  -0.000109  6.207504e-09  4.840093e-09   0.000163  0.000163  0.000163    0.999984        0.001707  0.999983      0.001643         0.070901
4    0.009148     0.010700 -0.009148  -0.010700  1.083635e-07  8.449281e-08   0.000542  0.000542  0.000542    0.999984        0.001707  0.999975      0.001818         0.235586
5   -0.015418    -0.000428  0.015529   0.000514  1.112712e-04  8.675999e-05   0.022263  0.022263  0.022263    0.999987        0.000612  1.007369      0.309043         9.679428
6   -0.006313    -0.000432  0.006344   0.000456  3.106224e-05  2.421974e-05   0.009133  0.009133  0.009133    0.999984        0.001706  1.005149      0.200285         3.970893
7   -0.002621    -0.000434  0.002625   0.000438  4.767534e-06  3.717325e-06   0.003834  0.003834  0.003834    0.999984        0.001706  1.001984      0.063888         1.667060
8   -0.006171    -0.001215  0.006178   0.001220  6.801081e-06  5.302915e-06   0.009078  0.009078  0.009078    0.999984        0.001706  1.001208      0.037098         3.946892
9   -0.013843    -0.007178  0.013843   0.007178  8.409578e-08  6.557087e-08   0.000600  0.000600  0.000600    0.999958        0.000464  0.999965      0.000536         0.260964
10  -0.006940    -0.005770  0.006940   0.005770  3.984370e-08  3.106679e-08   0.000347  0.000347  0.000347    0.999953        0.000474  0.999958      0.000464         0.151048
11  -0.004260    -0.006369  0.004260   0.006369  2.871457e-08  2.238922e-08   0.000295  0.000295  0.000295    0.999970        0.001904  0.999975      0.001818         0.128229
12   0.007856    -0.000435 -0.007820   0.000463  3.577958e-05  2.789792e-05   0.011225  0.011225  0.011225    1.011757        0.527241  1.007369      0.309043         4.880293
13   0.003797     0.000434 -0.003788  -0.000427  9.559195e-06  7.453462e-06   0.005461  0.005461  0.005461    1.010101        0.404029  1.007369      0.309043         2.374524
14   0.002848    -0.000435 -0.002840   0.000440  7.300576e-06  5.692379e-06   0.004100  0.004100  0.004100    1.013992        0.661370  1.011757      0.527241         1.782803
15  -0.001974    -0.000346  0.001979   0.000350  4.877677e-06  3.803205e-06   0.002890  0.002890  0.002890    1.001208        0.037098  1.003937      0.119847         1.256483
16   0.003933     0.000190 -0.003919  -0.000180  1.326562e-05  1.034342e-05   0.005634  0.005634  0.005634    1.008668        0.341808  1.005149      0.200285         2.449630
--------------------------------------------------

TRAFO:
    p_hv_mw  q_hv_mvar   p_lv_mw  q_lv_mvar    pl_mw  ql_mvar   i_hv_ka   i_lv_ka  vm_hv_pu  va_hv_degree  vm_lv_pu  va_lv_degree  loading_percent
0 -0.015408   0.000572  0.015418   0.000428  0.00001    0.001  0.000593  0.022263  0.999987      0.000612  0.999987      0.000612         0.154240
1 -0.015094  -0.001080  0.015104   0.002080  0.00001    0.001  0.000582  0.022007  0.999984      0.001707  0.999984      0.001706         0.152471
2  0.003087   0.017273 -0.003077  -0.013273  0.00001    0.004  0.000145  0.000524  1.000000      0.000000  1.000000      0.000002         0.043866
3 -0.001701   0.013729  0.001711  -0.009729  0.00001    0.004  0.000114  0.000380  1.000000      0.000000  1.000000      0.000002         0.034584
--------------------------------------------------
